tests/fixtures/dss/ieee13/IEEE13_Master.dss
! IEEE 13-node test feeder (IEEE PES Distribution System Analysis Subcommittee, 1991/2001).
! Dados publicos do caso-teste: matrizes de impedancia de fase em ohm/milha (configuracoes 601-607),
! cargas, capacitores, regulador trifasico em 650 e transformador 633-634. Escrito para o bdgd-light
! como fixture de tests/test_twin.py: circuito pequeno que converge e tem barras acima de 1,05 pu.
Clear
New Circuit.IEEE13 basekv=115 pu=1.0001 phases=3 bus1=SourceBus angle=30 mvasc3=20000 mvasc1=21000

! Transformador da subestacao 115/4,16 kV
New Transformer.Sub phases=3 windings=2 xhl=(8 1000 /)
~ wdg=1 bus=SourceBus conn=delta kv=115 kva=5000 %r=(0.5 1000 /)
~ wdg=2 bus=650 conn=wye kv=4.16 kva=5000 %r=(0.5 1000 /)

! Regulador de tensao (tres unidades monofasicas) entre 650 e RG60
New Transformer.Reg1 phases=1 bank=reg1 xhl=0.01 kvas=[1666 1666] buses=[650.1 RG60.1] kvs=[2.4 2.4] %loadloss=0.01
New RegControl.Reg1 transformer=Reg1 winding=2 vreg=122 band=2 ptratio=20 ctprim=700 r=3 x=9
New Transformer.Reg2 phases=1 bank=reg1 xhl=0.01 kvas=[1666 1666] buses=[650.2 RG60.2] kvs=[2.4 2.4] %loadloss=0.01
New RegControl.Reg2 transformer=Reg2 winding=2 vreg=122 band=2 ptratio=20 ctprim=700 r=3 x=9
New Transformer.Reg3 phases=1 bank=reg1 xhl=0.01 kvas=[1666 1666] buses=[650.3 RG60.3] kvs=[2.4 2.4] %loadloss=0.01
New RegControl.Reg3 transformer=Reg3 winding=2 vreg=122 band=2 ptratio=20 ctprim=700 r=3 x=9

! Transformador de distribuicao 4,16/0,48 kV
New Transformer.XFM1 phases=3 windings=2 xhl=2
~ wdg=1 bus=633 conn=wye kv=4.16 kva=500 %r=0.55
~ wdg=2 bus=634 conn=wye kv=0.48 kva=500 %r=0.55

! Configuracoes de linha (ohm/milha; capacitancia so nos cabos subterraneos)
Redirect IEEE13_LineCodes.dss

! Linhas (pes)
New Line.650632 phases=3 bus1=RG60.1.2.3 bus2=632.1.2.3 linecode=mtx601 length=2000 units=ft
New Line.632670 phases=3 bus1=632.1.2.3 bus2=670.1.2.3 linecode=mtx601 length=667 units=ft
New Line.670671 phases=3 bus1=670.1.2.3 bus2=671.1.2.3 linecode=mtx601 length=1333 units=ft
New Line.671680 phases=3 bus1=671.1.2.3 bus2=680.1.2.3 linecode=mtx601 length=1000 units=ft
New Line.632633 phases=3 bus1=632.1.2.3 bus2=633.1.2.3 linecode=mtx602 length=500 units=ft
New Line.632645 phases=2 bus1=632.3.2 bus2=645.3.2 linecode=mtx603 length=500 units=ft
New Line.645646 phases=2 bus1=645.3.2 bus2=646.3.2 linecode=mtx603 length=300 units=ft
New Line.692675 phases=3 bus1=692.1.2.3 bus2=675.1.2.3 linecode=mtx606 length=500 units=ft
New Line.671684 phases=2 bus1=671.1.3 bus2=684.1.3 linecode=mtx604 length=300 units=ft
New Line.684611 phases=1 bus1=684.3 bus2=611.3 linecode=mtx605 length=300 units=ft
New Line.684652 phases=1 bus1=684.1 bus2=652.1 linecode=mtx607 length=800 units=ft
! Chave 671-692 (fechada)
New Line.671692 phases=3 bus1=671 bus2=692 switch=y r1=1e-4 r0=1e-4 x1=0 x0=0 c1=0 c0=0

! Cargas (modelo 1 = P/Q constante, 2 = Z constante, 5 = I constante)
New Load.671 bus1=671.1.2.3 phases=3 conn=delta model=1 kv=4.16 kw=1155 kvar=660
New Load.634a bus1=634.1 phases=1 conn=wye model=1 kv=0.277 kw=160 kvar=110
New Load.634b bus1=634.2 phases=1 conn=wye model=1 kv=0.277 kw=120 kvar=90
New Load.634c bus1=634.3 phases=1 conn=wye model=1 kv=0.277 kw=120 kvar=90
New Load.645 bus1=645.2 phases=1 conn=wye model=1 kv=2.4 kw=170 kvar=125
New Load.646 bus1=646.2.3 phases=1 conn=delta model=2 kv=4.16 kw=230 kvar=132
New Load.692 bus1=692.3.1 phases=1 conn=delta model=5 kv=4.16 kw=170 kvar=151
New Load.675a bus1=675.1 phases=1 conn=wye model=1 kv=2.4 kw=485 kvar=190
New Load.675b bus1=675.2 phases=1 conn=wye model=1 kv=2.4 kw=68 kvar=60
New Load.675c bus1=675.3 phases=1 conn=wye model=1 kv=2.4 kw=290 kvar=212
New Load.611 bus1=611.3 phases=1 conn=wye model=5 kv=2.4 kw=170 kvar=80
New Load.652 bus1=652.1 phases=1 conn=wye model=2 kv=2.4 kw=128 kvar=86
New Load.670a bus1=670.1 phases=1 conn=wye model=1 kv=2.4 kw=17 kvar=10
New Load.670b bus1=670.2 phases=1 conn=wye model=1 kv=2.4 kw=66 kvar=38
New Load.670c bus1=670.3 phases=1 conn=wye model=1 kv=2.4 kw=117 kvar=68

! Capacitores
New Capacitor.Cap1 bus1=675 phases=3 kvar=600 kv=4.16
New Capacitor.Cap2 bus1=611.3 phases=1 kvar=100 kv=2.4

Set voltagebases=[115 4.16 0.48]
Calcvoltagebases
Set maxcontroliter=30
Solve
